Program Version,EnergyPlus, Version 9.2.0-f4a3498604, YMD=2019.09.28 01:07
